chandeg.con: written by SWAT+ editor v1.2.3 on 2021-01-24 15:52
      id  name                gis_id          area           lat           lon          elev      lcha               wst       cst      ovfl      rule   out_tot       obj_typ    obj_id       hyd_typ          frac  
       1  cha001                   1    4632.25000      53.04569      -4.32724             0         1      sta5302n435w         0         0         0         0  
       2  cha002                   2    4613.75000      53.04496      -4.32314             0         2      sta5302n435w         0         0         0         1           sdc         1           tot       1.00000  
       3  cha003                   3    4521.75000      53.04174      -4.31859             0         3      sta5302n435w         0         0         0         1           sdc         2           tot       1.00000  
       4  cha004                   4    4483.75000      53.04372      -4.30827             0         4      sta5306n428w         0         0         0         1           sdc         3           tot       1.00000  
       5  cha005                   5    4361.50000      53.04470      -4.29925             0         5      sta5306n428w         0         0         0         1           sdc         4           tot       1.00000  
       6  cha006                   6    4312.00000      53.04474      -4.29267             0         6      sta5306n428w         0         0         0         1           sdc         5           tot       1.00000  
       7  cha007                   7    4279.75000      53.04248      -4.29662             0         7      sta5306n428w         0         0         0         1           sdc         6           tot       1.00000  
       8  cha008                   8    3894.50000      53.04161      -4.29186             0         8      sta5306n428w         0         0         0         1           sdc         7           tot       1.00000  
       9  cha009                   9    3396.75000      53.04347      -4.28650             0         9      sta5306n428w         0         0         0         1           sdc         8           tot       1.00000  
      10  cha010                  10    3319.25000      53.04610      -4.28238             0        10      sta5306n428w         0         0         0         1           sdc         9           tot       1.00000  
      11  cha011                  11    3268.00000      53.04914      -4.27798             0        11      sta5306n428w         0         0         0         1           sdc        10           tot       1.00000  
      12  cha012                  12    3198.50000      53.05130      -4.27268             0        12      sta5306n428w         0         0         0         1           sdc        11           tot       1.00000  
      13  cha013                  13    2747.50000      53.05051      -4.27173             0        13      sta5306n428w         0         0         0         1           sdc        12           tot       1.00000  
      14  cha014                  14    2735.50000      53.05038      -4.27073             0        14      sta5306n428w         0         0         0         1           sdc        13           tot       1.00000  
      15  cha015                  15    2711.25000      53.04914      -4.26674             0        15      sta5306n428w         0         0         0         1           sdc        14           tot       1.00000  
      16  cha016                  16    2684.75000      53.05035      -4.26178             0        16      sta5306n428w         0         0         0         1           sdc        15           tot       1.00000  
      17  cha017                  17    2665.50000      53.05067      -4.26002             0        17      sta5306n428w         0         0         0         1           sdc        16           tot       1.00000  
      18  cha018                  18    2638.00000      53.04861      -4.25683             0        18      sta5306n428w         0         0         0         1           sdc        17           tot       1.00000  
      19  cha019                  19    2520.25000      53.04888      -4.25264             0        19      sta5306n428w         0         0         0         1           sdc        18           tot       1.00000  
      20  cha020                  20    2444.25000      53.05009      -4.25049             0        20      sta5306n428w         0         0         0         1           sdc        19           tot       1.00000  
      21  cha021                  21    2423.00000      53.04984      -4.24782             0        21      sta5306n428w         0         0         0         1           sdc        20           tot       1.00000  
      22  cha022                  22    2401.00000      53.05117      -4.24677             0        22      sta5306n428w         0         0         0         1           sdc        21           tot       1.00000  
      23  cha023                  23    2282.00000      53.05026      -4.24132             0        23      sta5306n428w         0         0         0         1           sdc        22           tot       1.00000  
      24  cha024                  24    2248.00000      53.05071      -4.23742             0        24      sta5306n428w         0         0         0         1           sdc        23           tot       1.00000  
      25  cha025                  25    2045.75000      53.05018      -4.23392             0        25      sta5306n420w         0         0         0         1           sdc        24           tot       1.00000  
      26  cha026                  26    1968.75000      53.05404      -4.22847             0        26      sta5306n420w         0         0         0         1           sdc        25           tot       1.00000  
      27  cha027                  27    1738.75000      53.05104      -4.23222             0        27      sta5306n420w         0         0         0         1           sdc        26           tot       1.00000  
      28  cha028                  28    1708.75000      53.05208      -4.23078             0        28      sta5306n420w         0         0         0         1           sdc        27           tot       1.00000  
      29  cha029                  29    1661.50000      53.05248      -4.22707             0        29      sta5306n420w         0         0         0         1           sdc        28           tot       1.00000  
      30  cha030                  30    1613.00000      53.05514      -4.22497             0        30      sta5306n420w         0         0         0         1           sdc        29           tot       1.00000  
      31  cha031                  31    1363.00000      53.05630      -4.22180             0        31      sta5306n420w         0         0         0         1           sdc        30           tot       1.00000  
      32  cha032                  32    1346.00000      53.05545      -4.21904             0        32      sta5306n420w         0         0         0         1           sdc        31           tot       1.00000  
      33  cha033                  33     487.50000      53.03939      -4.28711             0        33      sta5302n427w         0         0         0         1           sdc         8           tot       1.00000  
      34  cha034                  34     459.00000      53.03453      -4.28186             0        34      sta5302n427w         0         0         0         1           sdc        33           tot       1.00000  
      35  cha035                  35    1232.75000      53.05193      -4.21372             0        35      sta5306n420w         0         0         0         1           sdc        32           tot       1.00000  
      36  cha036                  36    1051.00000      53.05271      -4.21188             0        36      sta5306n420w         0         0         0         1           sdc        35           tot       1.00000  
      37  cha037                  37     447.50000      53.04911      -4.27113             0        37      sta5306n428w         0         0         0         1           sdc        12           tot       1.00000  
      38  cha038                  38    1033.00000      53.05316      -4.21082             0        38      sta5306n420w         0         0         0         1           sdc        36           tot       1.00000  
      39  cha039                  39     404.25000      53.04795      -4.27278             0        39      sta5306n428w         0         0         0         1           sdc        37           tot       1.00000  
      40  cha040                  40     773.50000      53.05468      -4.20767             0        40      sta5306n420w         0         0         0         1           sdc        38           tot       1.00000  
      41  cha041                  41     749.50000      53.05303      -4.20476             0        41      sta5306n420w         0         0         0         1           sdc        40           tot       1.00000  
      42  cha042                  42     717.50000      53.05643      -4.20143             0        42      sta5306n420w         0         0         0         1           sdc        41           tot       1.00000  
      43  cha043                  43     415.75000      53.03378      -4.27372             0        43      sta5302n427w         0         0         0         1           sdc        34           tot       1.00000  
      44  cha044                  44     677.75000      53.05582      -4.19689             0        44      sta5306n420w         0         0         0         1           sdc        42           tot       1.00000  
      45  cha045                  45     367.00000      53.02910      -4.26526             0        45      sta5302n427w         0         0         0         1           sdc        43           tot       1.00000  
      46  cha046                  46     381.25000      53.03999      -4.29524             0        46      sta5302n427w         0         0         0         1           sdc         7           tot       1.00000  
      47  cha047                  47     322.00000      53.02826      -4.25982             0        47      sta5302n427w         0         0         0         1           sdc        45           tot       1.00000  
      48  cha048                  48     222.50000      53.04980      -4.23162             0        48      sta5306n420w         0         0         0         1           sdc        26           tot       1.00000  
      49  cha049                  49     347.00000      53.03768      -4.29604             0        49      sta5302n427w         0         0         0         1           sdc        46           tot       1.00000  
      50  cha050                  50     304.25000      53.02830      -4.25767             0        50      sta5302n427w         0         0         0         1           sdc        47           tot       1.00000  
      51  cha051                  51     314.00000      53.03981      -4.27009             0        51      sta5302n427w         0         0         0         1           sdc        39           tot       1.00000  
      52  cha052                  52     318.25000      53.03659      -4.29885             0        52      sta5302n427w         0         0         0         1           sdc        49           tot       1.00000  
      53  cha053                  53     260.00000      53.03395      -4.26030             0        53      sta5302n427w         0         0         0         1           sdc        51           tot       1.00000  
      54  cha054                  54     248.50000      53.03535      -4.25667             0        54      sta5302n427w         0         0         0         1           sdc        53           tot       1.00000  
      55  cha055                  55     290.00000      53.03456      -4.30025             0        55      sta5302n427w         0         0         0         1           sdc        52           tot       1.00000  
      56  cha056                  56     209.25000      53.04598      -4.22892             0        56      sta5306n420w         0         0         0         1           sdc        48           tot       1.00000  
      57  cha057                  57     314.50000      53.05492      -4.19567             0        57      sta5306n420w         0         0         0         1           sdc        44           tot       1.00000  
      58  cha058                  58     129.25000      53.05790      -4.21085             0        58      sta5306n420w         0         0         0         1           sdc        35           tot       1.00000  
      59  cha059                  59     254.75000      53.03125      -4.29402             0        59      sta5302n427w         0         0         0         1           sdc        55           tot       1.00000  
      60  cha060                  60     247.75000      53.06008      -4.22123             0        60      sta5306n420w         0         0         0         1           sdc        30           tot       1.00000  
      61  cha061                  61     229.75000      53.03348      -4.25469             0        61      sta5302n427w         0         0         0         1           sdc        54           tot       1.00000  
      62  cha062                  62     258.00000      53.04840      -4.20759             0        62      sta5306n420w         0         0         0         1           sdc        38           tot       1.00000  
      63  cha063                  63     269.50000      53.02267      -4.25199             0        63      sta5302n427w         0         0         0         1           sdc        50           tot       1.00000  
      64  cha064                  64     271.25000      53.05235      -4.18508             0        64      sta5306n420w         0         0         0         1           sdc        57           tot       1.00000  
      65  cha065                  65     208.00000      53.03040      -4.24838             0        65      sta5302n427w         0         0         0         1           sdc        61           tot       1.00000  
      66  cha066                  66     201.50000      53.05425      -4.23150             0        66      sta5306n420w         0         0         0         1           sdc        24           tot       1.00000  
      67  cha067                  67     194.25000      53.02114      -4.24807             0        67      sta5302n427w         0         0         0         1           sdc        63           tot       1.00000  
      68  cha068                  68     344.25000      53.05968      -4.18187             0        68      sta5306n420w         0         0         0         1           sdc        44           tot       1.00000  
      69  cha069                  69     204.50000      53.06650      -4.21548             0        69      sta5306n420w         0         0         0         1           sdc        60           tot       1.00000  
      70  cha070                  70     111.75000      53.05042      -4.18391             0        70      sta5306n420w         0         0         0         1           sdc        64           tot       1.00000  
      71  cha071                  71     152.00000      53.05752      -4.22726             0        71      sta5306n420w         0         0         0         1           sdc        66           tot       1.00000  
      72  cha072                  72     147.00000      53.02840      -4.28921             0        72      sta5302n427w         0         0         0         1           sdc        59           tot       1.00000  
      73  cha073                  73     146.75000      53.06821      -4.21306             0        73      sta5306n420w         0         0         0         1           sdc        69           tot       1.00000  
      74  cha074                  74      98.50000      53.07377      -4.21211             0        74      sta5306n420w         0         0         0         1           sdc        73           tot       1.00000  
      75  cha075                  75     181.25000      53.01894      -4.24354             0        75      sta5302n427w         0         0         0         1           sdc        67           tot       1.00000  
      76  cha076                  76     111.00000      53.02636      -4.28472             0        76      sta5302n427w         0         0         0         1           sdc        72           tot       1.00000  
      77  cha077                  77     109.75000      53.04668      -4.25513             0        77      sta5306n428w         0         0         0         1           sdc        18           tot       1.00000  
      78  cha078                  78     134.75000      53.06109      -4.16513             0        78      sta5306n420w         0         0         0         1           sdc        68           tot       1.00000  
      79  cha079                  79     103.00000      53.03304      -4.24094             0        79      sta5302n427w         0         0         0         1           sdc        65           tot       1.00000  
      80  cha080                  80      86.75000      53.02800      -4.28327             0        80      sta5302n427w         0         0         0         1           sdc        76           tot       1.00000  
      81  cha081                  81      75.00000      53.04581      -4.25134             0        81      sta5306n428w         0         0         0         1           sdc        77           tot       1.00000  
      82  cha082                  82     132.00000      53.05307      -4.17953             0        82      sta5306n420w         0         0         0         1           sdc        64           tot       1.00000  
      83  cha083                  83      64.00000      53.04757      -4.30100             0        83      sta5306n428w         0         0         0         1           sdc         4           tot       1.00000  
      84  cha084                  84     163.75000      53.03916      -4.22463             0        84      sta5302n420w         0         0         0         1           sdc        56           tot       1.00000  
      85  cha085                  85     113.50000      53.05354      -4.24417             0        85      sta5306n428w         0         0         0         1           sdc        22           tot       1.00000  
      86  cha086                  86      93.50000      53.02778      -4.24369             0        86      sta5302n427w         0         0         0         1           sdc        65           tot       1.00000  
      87  cha087                  87      57.00000      53.05599      -4.24389             0        87      sta5306n428w         0         0         0         1           sdc        85           tot       1.00000  
      88  cha088                  88     134.25000      53.06235      -4.23201             0        88      sta5306n420w         0         0         0         1           sdc        71           tot       1.00000  
      89  cha089                  89     105.00000      53.06401      -4.20649             0        89      sta5306n420w         0         0         0         1           sdc        32           tot       1.00000  
      90  cha090                  90      55.50000      53.03010      -4.24568             0        90      sta5302n427w         0         0         0         1           sdc        86           tot       1.00000  
      91  cha091                  91      44.50000      53.05602      -4.24227             0        91      sta5306n428w         0         0         0         1           sdc        87           tot       1.00000  
      92  cha092                  92      83.75000      53.02813      -4.29986             0        92      sta5302n427w         0         0         0         1           sdc        59           tot       1.00000  
      93  cha093                  93     217.00000      53.04087      -4.20506             0        93      sta5302n420w         0         0         0         1           sdc        62           tot       1.00000  
      94  cha094                  94      66.00000      53.05135      -4.25131             0        94      sta5306n428w         0         0         0         1           sdc        19           tot       1.00000  
      95  cha095                  95      73.75000      53.07184      -4.20761             0        95      sta5306n420w         0         0         0         1           sdc        74           tot       1.00000  
      96  cha096                  96      93.25000      53.06543      -4.23295             0        96      sta5306n420w         0         0         0         1           sdc        88           tot       1.00000  
      97  cha097                  97      63.50000      53.02856      -4.27854             0        97      sta5302n427w         0         0         0         1           sdc        80           tot       1.00000  
      98  cha098                  98      78.50000      53.03574      -4.19995             0        98      sta5302n420w         0         0         0         1           sdc        93           tot       1.00000  
      99  cha099                  99      74.75000      53.04644      -4.23456             0        99      sta5306n420w         0         0         0         1           sdc        25           tot       1.00000  
     100  cha100                 100      44.25000      53.04483      -4.27269             0       100      sta5306n428w         0         0         0         1           sdc        39           tot       1.00000  
     101  cha101                 101      46.75000      53.05726      -4.24623             0       101      sta5306n428w         0         0         0         1           sdc        85           tot       1.00000  
     102  cha102                 102     127.50000      53.02102      -4.23201             0       102      sta5302n420w         0         0         0         1           sdc        75           tot       1.00000  
     103  cha103                 103     101.00000      53.03365      -4.21648             0       103      sta5302n420w         0         0         0         1           sdc        84           tot       1.00000  
     104  cha104                 104      46.25000      53.05068      -4.22663             0       104      sta5306n420w         0         0         0         1           sdc        28           tot       1.00000  
     105  cha105                 105      43.50000      53.03117      -4.22049             0       105      sta5302n420w         0         0         0         1           sdc       103           tot       1.00000  
     106  cha106                 106      49.75000      53.06760      -4.23194             0       106      sta5306n420w         0         0         0         1           sdc        96           tot       1.00000  
     107  cha107                 107      51.75000      53.07375      -4.20092             0       107      sta5306n420w         0         0         0         1           sdc        95           tot       1.00000  
     108  cha108                 108      27.75000      53.02669      -4.27644             0       108      sta5302n427w         0         0         0         1           sdc        97           tot       1.00000  
     109  cha109                 109      45.50000      53.05533      -4.25664             0       109      sta5306n428w         0         0         0         1           sdc        94           tot       1.00000  
     110  cha110                 110      45.50000      53.01846      -4.23128             0       110      sta5302n420w         0         0         0         1           sdc       102           tot       1.00000  
     111  cha111                 111      84.50000      53.03651      -4.31698             0       111      sta5302n435w         0         0         0         1           sdc         2           tot       1.00000  
     112  cha112                 112      38.25000      53.04232      -4.23421             0       112      sta5306n420w         0         0         0         1           sdc        99           tot       1.00000  
     113  cha113                 113      26.00000      53.03041      -4.24458             0       113      sta5302n427w         0         0         0         1           sdc        86           tot       1.00000  
     114  cha114                 114      27.25000      53.05690      -4.23025             0       114      sta5306n420w         0         0         0         1           sdc        66           tot       1.00000  
     115  cha115                 115      41.00000      53.03508      -4.20688             0       115      sta5302n420w         0         0         0         1           sdc        98           tot       1.00000  
     116  cha116                 116      61.25000      53.03796      -4.19448             0       116      sta5302n420w         0         0         0         1           sdc        93           tot       1.00000  
     117  cha117                 117      59.25000      53.05097      -4.17092             0       117      sta5306n420w         0         0         0         1           sdc        82           tot       1.00000  
     118  cha118                 118      17.50000      53.01382      -4.23493             0       118      sta5302n420w         0         0         0         1           sdc       102           tot       1.00000  
     119  cha119                 119      23.25000      53.01658      -4.22669             0       119      sta5302n420w         0         0         0         1           sdc       110           tot       1.00000  
     120  cha120                 120      11.50000      53.01438      -4.23151             0       120      sta5302n420w         0         0         0         1           sdc       110           tot       1.00000  
     121  cha121                 121      10.50000      53.01942      -4.22576             0       121      sta5302n420w         0         0         0         1           sdc       110           tot       1.00000  
     122  cha122                 122      27.25000      53.01702      -4.23881             0       122      sta5302n427w         0         0         0         1           sdc        75           tot       1.00000  
     123  cha123                 123      19.50000      53.01683      -4.24685             0       123      sta5302n427w         0         0         0         1           sdc        63           tot       1.00000  
     124  cha124                 124      12.25000      53.02290      -4.24312             0       124      sta5302n427w         0         0         0         1           sdc        67           tot       1.00000  
     125  cha125                 125      21.00000      53.02239      -4.29887             0       125      sta5302n427w         0         0         0         1           sdc        92           tot       1.00000  
     126  cha126                 126      19.00000      53.02365      -4.27438             0       126      sta5302n427w         0         0         0         1           sdc        80           tot       1.00000  
     127  cha127                 127      16.00000      53.02341      -4.26906             0       127      sta5302n427w         0         0         0         1           sdc       108           tot       1.00000  
     128  cha128                 128      20.00000      53.02408      -4.27824             0       128      sta5302n427w         0         0         0         1           sdc        76           tot       1.00000  
     129  cha129                 129      26.50000      53.02440      -4.29287             0       129      sta5302n427w         0         0         0         1           sdc        92           tot       1.00000  
     130  cha130                 130      16.50000      53.02425      -4.25964             0       130      sta5302n427w         0         0         0         1           sdc        47           tot       1.00000  
     131  cha131                 131      11.75000      53.02383      -4.28296             0       131      sta5302n427w         0         0         0         1           sdc        72           tot       1.00000  
     132  cha132                 132      12.00000      53.02554      -4.23715             0       132      sta5302n427w         0         0         0         1           sdc        90           tot       1.00000  
     133  cha133                 133      10.50000      53.02628      -4.27186             0       133      sta5302n427w         0         0         0         1           sdc       108           tot       1.00000  
     134  cha134                 134      21.25000      53.02693      -4.21510             0       134      sta5302n420w         0         0         0         1           sdc       105           tot       1.00000  
     135  cha135                 135      54.75000      53.02929      -4.22689             0       135      sta5302n420w         0         0         0         1           sdc        79           tot       1.00000  
     136  cha136                 136      43.00000      53.02691      -4.23415             0       136      sta5302n420w         0         0         0         1           sdc        90           tot       1.00000  
     137  cha137                 137      33.00000      53.02728      -4.25054             0       137      sta5302n427w         0         0         0         1           sdc        50           tot       1.00000  